<?xml version="1.0" encoding="iso-8859-1"?>

<configuration xmlns:xsi="http://www.w3.org/2001/XMLSchema-instance" xsi:noNamespaceSchemaLocation="http://sumo.dlr.de/xsd/duarouterConfiguration.xsd">
	<input>
	<net-file value="sarjapur.net.xml"/>
	<route-files value="sarjapur.rou.xml"/>
	</input>
	
	<time>
	<begin value="0"/>
	<end value="60000"/>
	</time>
</configuration>
