<?xml version="1.0" encoding="UTF-8"?>

<!-- generated on 2024-05-21 22:54:58.083329 by randomTrips.py UNKNOWN
<configuration>
    <net-file value="/home/vatsal/Projects/KSPHackathon/SUMO-TraCI_OSM-master/map.net.xml"/>
    <route-file value="/home/vatsal/Projects/KSPHackathon/SUMO-TraCI_OSM-master/map.rou.xml"/>
    <length value="True"/>
    <end value="500.0"/>
</configuration>
-->

<!-- generated on 2024-05-21 22:54:57 by Eclipse SUMO duarouter Version 1.20.0
<configuration xmlns:xsi="http://www.w3.org/2001/XMLSchema-instance" xsi:noNamespaceSchemaLocation="http://sumo.dlr.de/xsd/duarouterConfiguration.xsd">

    <input>
        <net-file value="/home/vatsal/Projects/KSPHackathon/SUMO-TraCI_OSM-master/map.net.xml"/>
        <route-files value="trips.trips.xml"/>
    </input>

    <output>
        <output-file value="/home/vatsal/Projects/KSPHackathon/SUMO-TraCI_OSM-master/map.rou.xml"/>
        <alternatives-output value="NUL"/>
    </output>

    <time>
        <begin value="0"/>
        <end value="500.0"/>
    </time>

    <report>
        <no-warnings value="true"/>
        <ignore-errors value="true"/>
        <no-step-log value="true"/>
    </report>

</configuration>
-->

<routes xmlns:xsi="http://www.w3.org/2001/XMLSchema-instance" xsi:noNamespaceSchemaLocation="http://sumo.dlr.de/xsd/routes_file.xsd">
    <vehicle id="0" depart="0.00">
        <route edges="36882311#6 36882311#7 1091198032#0 1091198032#1 399001079#0 399001079#1 -363449251#2 -363449251#1 -363449251#0 1064628344#0 1064628344#1 1182221969 1182221971#0 1182221971#1 1182221968#2 52032727#0 52032727#1 638928391 1263537981#0 1263537981#1 1263537981#2 1263537980 638928392#0 638928392#1 638928392#2 638928392#3 638928392#4 638928392#5 638928392#6 638928392#7 638928392#8 638928392#9 638928392#10 638928392#11 638928392#12 638928392#13 638928392#14 781001561#0 781001561#1 52244633#0 52244633#1 52244633#2 52244633#3 23076927#2 23076927#3 -1065391880#1 -1065391880#0 -36907517 -36897656#10 -36897656#9 -36907536#7 -36907536#6 -36907536#5 -36907536#4 -421102467 112243698#2 112243698#3 -112243698#3 -112243698#2"/>
    </vehicle>
    <vehicle id="1" depart="1.00">
        <route edges="-51869441#1 -51869441#0 1272457058#0 1272457058#1 1096795621#0 1096795621#1 362206700#3 362206700#4 362206700#5 362206700#6 362206700#7 362206700#8 362206700#9 362206700#10 362206700#11 1109946346#0 1109946346#1 1109946347 553253465 52032736 52032737 52032735 638928391 1263537981#0 1263537981#1 1263537981#2 1263537980 638928392#0 638928392#1 638928392#2 638928392#3 638928392#4 638928392#5 638928392#6 638928392#7 638928392#8 638928392#9 638928392#10 638928392#11 638928392#12 638928392#13 638928392#14 781001561#0 781001561#1 781001561#2 781001561#3 22893740#0 22893740#1 22893740#2 52033011#0 52033011#1 52033011#2 52033011#3 52033011#4 52033011#5 52033011#6 52033011#7 38757895#0 38757895#1 38757895#2 38757895#3 38757895#4 38757895#5 38757895#6 38757895#7 -38757923#5"/>
    </vehicle>
    <vehicle id="2" depart="2.00">
        <route edges="37898955#0 36897656#0 36897656#1 36897656#2 36897656#3 36897656#4 36897656#5 36897656#6 36897656#7 36897656#8 36897656#9 36897656#10 36897656#11 36897656#12 36897656#13 36897656#14 36897656#15 36897656#16 36897656#17 -36907520 36907520"/>
    </vehicle>
    <vehicle id="3" depart="3.00">
        <route edges="508197004#2 52032471 399001083#0 399001083#1 399001083#2 399001083#3 36882311#7 1091198032#0 1091198032#1 399001079#0 399001079#1 -363449251#2"/>
    </vehicle>
    <vehicle id="5" depart="5.00">
        <route edges="-38757903#1 38757903#1 -251492658#7 -251492658#6 -251492658#5 -251492658#4 -251492658#3 -251492658#2 -251492658#1 -251492658#0 38757909#1 38757909#2 1091791758#0 1091791758#1 224618934#6 224618934#7 224618934#8 224618934#9 224618934#10 224618934#11 224618934#12 224618934#13 224618934#14 148016866#0 148016866#1 148016866#2 148016873#0 148016873#1 461556532 23076927#0 23076927#1 23076927#2"/>
    </vehicle>
    <vehicle id="6" depart="6.00">
        <route edges="-1098787348#1 -1098787348#0 171887405#1 171887405#2 171887405#3 171887405#4 763175328#0 763175328#1 763175328#2 763175328#3 763175328#4 763175329#0 763175329#1 763175329#2 763175329#3 763175329#4 498553874 375964868#0 375964868#1 375964868#2 375964868#3 375964868#4 375964868#5 375964868#6 375964868#7 375964868#8 224618934#0 224618934#1 224618934#2 224618934#3 224618934#4 224618934#5 224618934#6 224618934#7 224618934#8 224618934#9 224618934#10 224618934#11 224618934#12 52033011#2 52033011#3 52033011#4 52033011#5 52033011#6 52033011#7 52033011#8 52033011#9 52033011#10 52033011#11 52033011#12 52033011#13 52033011#14 1249875207 38757918 -38757904#0"/>
    </vehicle>
    <vehicle id="8" depart="8.00">
        <route edges="-38757903#3 38757929#2 38757929#3 38757906#1 208745497#0 208745497#1 1091791758#0 1091791758#1 224618934#6 224618934#7 36851745#0 36851745#1 154340361#5 154340361#6 154340361#7 154340361#8 36882313 1205171800 1109911794 1148155465 1109911788 26283603 1205171802#0 1205171802#1 1205171802#2 1205171802#3 1205171802#4 1205171802#5 1205171802#6 1205171802#7 1205171802#8 1205171802#9 107215083#0 107215083#1 107215083#2 107215083#3 107215083#4 107215083#5 1232642395 359476589 359476587#0 359476587#1 359476587#2 359476587#3 760700372 503401204#0 503401204#1 503401204#2 362206700#0 362206700#1 362206700#2 362206700#3 362206700#4 362206700#5 362206700#6 362206700#7 362206700#8 362206700#9 -1263537990 362206701#0 362206701#1 362206701#2"/>
    </vehicle>
    <vehicle id="9" depart="9.00">
        <route edges="38757918 38757904#1 38757904#2 38757904#3 38757904#4 38757895#3 38757905#1 38757905#2 38757905#3 -38757906#2 208745497#0 208745497#1 1091791758#0 1091791758#1 -1091791758#1 -1091791758#0"/>
    </vehicle>
    <vehicle id="10" depart="10.00">
        <route edges="38757913 -38757913 38757907#1 38757911#0 38757911#1 38757911#2 224618934#9 224618934#10 224618934#11 224618934#12 224618934#13 224618934#14 148016866#0 148016866#1 148016866#2 148016873#0 148016873#1 461556532 23076927#0 23076927#1 23076927#2 23076927#3 -1065391880#1 -1065391880#0 -36907517 -36897656#10 -36897656#9 -36907536#7 36907536#7"/>
    </vehicle>
    <vehicle id="11" depart="11.00">
        <route edges="1102326203#0 1102326203#1 1102326203#2 26283651#0 26283651#1 26283651#2 26283651#3 26283651#4 26283651#5 26283651#6 26283651#7 1124838026 1124838025#0 1124838025#1 1124838025#2 1124838025#3 1124838025#4 1124838025#5 1124838025#6 30332854#0 30332854#1 30332854#2 1101945532 766406223#0 766406223#1 766406223#2 1109912029 760700374 107215083#0 107215083#1 107215083#2 107215083#3 107215083#4 107215083#5 1232642395 359476589 359476587#0 359476587#1 359476587#2 359476587#3 508711055#0 508711055#1 508711055#2 52063523#2 52063523#3 52063523#4 52063523#5 52063523#6 554901329 1106310175 1195630061#0 1195630061#1 1157218017#0 1157218017#1 1157218017#2 52246044#6 36913437 763038672 36913439 -36913440#0"/>
    </vehicle>
    <vehicle id="12" depart="12.00">
        <route edges="763175329#1 763175329#2 763175329#3 763175329#4 498553874 375964868#0 375964868#1 375964868#2 375964868#3 375964868#4 375964868#5 375964868#6 375964868#7 375964868#8 224618934#0 224618934#1 224618934#2 224618934#3 224618934#4 224618934#5 224618934#6 224618934#7 36851745#0 36851745#1 154340361#5 154340361#6 154340361#7 154340361#8 36882313 1205171800 1109911794 1148155465 1109911788 26283603 1205171802#0 1205171802#1 1205171802#2 1205171802#3 1205171802#4 1205171802#5 1205171802#6 1205171802#7 1205171802#8 1205171802#9 107215083#0 107215083#1 107215083#2 107215083#3 107215083#4 107215083#5 1232642395 359476589 359476587#0 359476587#1 359476587#2 359476587#3 760700372 503401204#0 503401204#1 503401204#2 362206700#0 362206700#1 362206700#2 362206700#3 362206700#4 362206700#5 362206700#6 362206700#7 362206700#8 362206700#9 362206700#10 362206700#11 1109946346#0 1109946346#1"/>
    </vehicle>
    <vehicle id="13" depart="13.00">
        <route edges="-332907586#1 -332907586#0 -1125877419 1125877419 332907586#0 332907586#1 332907586#2 1125877418#0 1125877418#1 107215088#2 107215088#3 1148718165#0 1148718165#1 362900184 359476587#0 359476587#1 359476587#2 359476587#3 760700372 503401204#0 503401204#1 503401204#2 362206700#0 362206700#1 362206700#2 362206700#3 362206700#4 362206700#5 362206700#6 362206700#7 362206700#8 362206700#9 362206700#10 362206700#11 1109946346#0 1109946346#1 1109946347 553253465 52032736 52032737 52032735 638928391 1263537981#0 1263537981#1 1263537981#2 1263537980 638928392#0 638928392#1 638928392#2 638928392#3 638928392#4 638928392#5 638928392#6 638928392#7 638928392#8 638928392#9 638928392#10 638928392#11 638928392#12 638928392#13 638928392#14 781001561#0 781001561#1 52244633#0 52244633#1 52244633#2 52244633#3 23076927#2 23076927#3 -1065391880#1 -1065391880#0 -36907517 -36897656#10 -36897656#9 -36897656#8 -36897656#7 -36897656#6 -36897656#5 -36897656#4 -36897656#3"/>
    </vehicle>
    <vehicle id="14" depart="14.00">
        <route edges="435249314#0 435249314#1 435249314#2 435249314#3 161416663#0 161416663#1 1101945532 766406223#0 766406223#1 766406223#2 1109912029 760700374 107215083#0 107215083#1 107215083#2 107215083#3 107215083#4 107215083#5 1232642395 359476589 359476587#0 359476587#1 359476587#2 359476587#3 760700372 503401204#0 503401204#1 503401204#2 362206700#0 362206700#1 362206700#2 362206700#3 362206700#4 362206700#5 362206700#6 362206700#7 362206700#8 362206700#9 362206700#10 362206700#11 1109946346#0 1109946346#1 1109946347 553253465 553253466#0 553253466#1 553253466#2 553253466#3 1182221968#1 1182221968#2 1278818346#0 363477540"/>
    </vehicle>
    <vehicle id="15" depart="15.00">
        <route edges="38757914 -38757907#2 38757911#0 38757911#1 38757911#2 224618934#9 224618934#10 224618934#11 224618934#12 224618934#13 224618934#14 148016866#0 148016866#1 148016866#2 148016873#0 148016873#1 461556532 148016888#0 148016888#1 22893740#0 22893740#1 22893740#2 154340361#0 154340361#1 154340361#2 154340361#3 154340361#4 154340361#5 154340361#6 154340361#7 154340361#8 36882313 1205171800 1109911794 1148155465 1109911788 26283603 1205171802#0 1205171802#1 1205171802#2 1205171802#3 1205171802#4 1205171802#5 1205171802#6 1205171802#7 1205171802#8 1205171802#9 107215083#0 107215083#1 107215083#2 107215083#3 107215083#4 107215083#5 1232642395 359476589 359476587#0 359476587#1 359476587#2 359476587#3 508711055#0 508711055#1 508711055#2 52063523#2 52063523#3 52063523#4 52063523#5 52063523#6 554901329 1106310175 1195630061#0 1195630061#1 1157218017#0 1157218017#1 1157218017#2 52246044#6 36913437 763038672 36970838#0"/>
    </vehicle>
    <vehicle id="16" depart="16.00">
        <route edges="23515739#0 23515739#1 38684971#1 38684971#2 38684971#3 38684971#4 363477538 46704053 1167355002 160558221#0 160558221#1 160558221#2 160558221#3 160558221#4 160558221#5 -52245576#4 1148406432#3 1148406432#4 1148406432#5 1148406432#6 1148406432#7 1148406432#8 1148406432#9 1148406432#10 208827400#0 208827400#1 1054230460#0 1054230460#1 1054230460#2 779282845 779282844#0 779282844#1 764332430#0 764332430#1 150894905 1278818347 1109946344#0 1109946344#1 1109946344#2 1193542609 1109946345#0 1109946345#1 1249434050#0 1249434050#1 1249434050#2 1249434050#3 362206701#0 362206701#1 362206701#2 362206701#3 362206701#4 362206701#5 362206701#6 362206701#7 1148408386#0 1148408386#1 363452629#0 363452629#1 1110178942 360861353#0 360861353#1 360861353#2 360861353#3 360861353#4 360861353#5 360861353#6 760700371 26808007 503401206#0 503401206#1 503401206#2 503401206#3 503401205#0 503401205#1 503401205#2 589685544 52063523#0 52063523#1 52063523#2 52063523#3 52063523#4 52063523#5 52063523#6 1148718166 506310567#0 506310567#1 730432812#0 730432812#1 730432812#2 730432812#3 730432812#4 355938968 46728567#0 46728567#1 46728567#2 46728567#3 23029715#0 23029715#1 23029715#2 23029715#3 23029715#4 1124838025#5 1124838025#6 766406224#0 766406224#1"/>
    </vehicle>
    <vehicle id="17" depart="17.00">
        <route edges="1148406432#2 1148406432#3 1148406432#4 1148406432#5 1148406432#6 1148406432#7 1148406432#8 1148406432#9 1148406432#10 208827400#0 208827400#1 1054230460#0 1054230460#1 1054230460#2 779282845 779282844#0 779282844#1 764332430#0 764332430#1 150894905 1278818347 1109946344#0 1109946344#1 1109946344#2 1193542609 1109946345#0 1109946345#1 1249434050#0 1249434050#1 1249434050#2 1249434050#3 362206701#0 362206701#1 362206701#2 362206701#3 362206701#4 362206701#5 362206701#6 362206701#7 1148408386#0 1148408386#1 363452629#0 363452629#1 1110178942 360861353#0 360861353#1 360861353#2 360861353#3 360861353#4 360861353#5 360861353#6 760700371 26808007 503401206#0 503401206#1 503401206#2 503401206#3 503401205#0 503401205#1 503401205#2 589685544 52063523#0 52063523#1 52063523#2 52063523#3 52063523#4 52063523#5 52063523#6 1148718166 506310567#0 506310567#1 730432812#0 730432812#1 730432812#2 730432812#3 730432812#4 355938968 46728567#0 46728567#1 46728567#2 46728567#3 23029715#0 23029715#1 23029715#2 23029715#3 23029715#4 1124838025#5 1124838025#6 30332854#0 30332854#1"/>
    </vehicle>
    <vehicle id="20" depart="20.00">
        <route edges="36907546#0 -36907546#0 -36897656#19 -36897656#18 -36897656#17 -36897656#16 -36897656#15 -36897656#14 -36897656#13 -36897656#12 -36897656#11 -36897656#10 -36897656#9 -36897656#8 -36897656#7 -36897656#6 -36897656#5 -36897656#4 -36897656#3 -36897656#2 -36897656#1 -36897656#0 37898955#1 461556532 148016888#0 148016888#1 22893740#0 22893740#1 22893740#2 154340361#0 154340361#1 154340361#2 154340361#3 154340361#4 154340361#5 154340361#6 154340361#7 154340361#8 36882313 1205171800 1109911794 1148155465 1109911788 26283603 1205171802#0 1205171802#1 1205171802#2 1205171802#3 1205171802#4 1205171802#5 1205171802#6 1205171802#7 1205171802#8 1205171802#9 107215083#0 107215083#1 107215083#2 107215083#3 107215083#4 107215083#5 1232642395 359476589 359476587#0 359476587#1 359476587#2 359476587#3 760700372 503401204#0 503401204#1 503401204#2 362206700#0 362206700#1 362206700#2 362206700#3 362206700#4 362206700#5 362206700#6 362206700#7 362206700#8 362206700#9 362206700#10 362206700#11 1109946346#0 1109946346#1 1109946347 553253465 553253466#0 1240166718 1109946344#2 1193542609 -250717629#2 -250717629#1 -250717629#0 -250717622 1267185583#0 1267185583#1 1267185583#2 1267185583#3 1267185583#4 763048420#0 763048420#1 763048420#2 763048420#3 763048420#4 763048420#5 763048420#6 763048420#7 338941361#0 338941361#1 338941361#2 338941361#3 338941361#4 338941361#5 -1267185541#2 -1267185541#1 -1267185541#0"/>
    </vehicle>
    <vehicle id="21" depart="21.00">
        <route edges="-38757907#6 38757905#3 -38757906#2 208745497#0 208745497#1 1091791758#0 1091791758#1 224618934#6 224618934#7 36851745#0 36851745#1 154340361#5 154340361#6 154340361#7 154340361#8 36882313 1205171800 1109911794 1148155465 1109911788 26283603 1205171802#0 1205171802#1 1205171802#2 1205171802#3 1205171802#4 1205171802#5 1205171802#6 1205171802#7 1205171802#8 1205171802#9 107215083#0 107215083#1 107215083#2"/>
    </vehicle>
    <vehicle id="22" depart="22.00">
        <route edges="-23515292#8 -23515292#7 -23515292#6 -23515292#5 -23515292#4 -23515292#3 -23515292#2 -23515292#1 -23515292#0 23076921#2 111867007#0 111867007#1 111867007#2 111867007#3 111867007#4 111867007#5 1259465066 1214076610#0 1214076610#1 1214076610#2 37898955#0 37898955#1 461556532 148016888#0 148016888#1 22893740#0 22893740#1 22893740#2 52033011#0 52033011#1 52033011#2 52033011#3 52033011#4 52033011#5 52033011#6 38757907#0 38757907#1 38757907#2 38757907#3 38757907#4 38757907#5 38757907#6 38757929#3 38757929#4 38757932#1 -38757932#1"/>
    </vehicle>
    <vehicle id="23" depart="23.00">
        <route edges="-363449251#2 -363449251#1 -363449251#0 1064628344#0 1064628344#1 1182221969 1182221971#0 1182221971#1 1182221968#2 1278818346#0 1278818346#1 1263537982#0 1263537982#1 1278818347 1109946344#0 1109946344#1 1109946344#2 1193542609 1109946345#0 1109946345#1 1249434050#0 1249434050#1 1249434050#2 1249434050#3 362206701#0 362206701#1 362206701#2 362206701#3 362206701#4 362206701#5 362206701#6 362206701#7 1148408386#0 1148408386#1 363452629#0 363452629#1 1110178942 360861353#0 360861353#1 360861353#2 360861353#3 360861353#4 360861353#5 360861353#6 760700371 26808007 503401206#0 503401206#1 503401206#2 503401206#3 503401205#0 503401205#1 503401205#2 589685544 52063523#0 52063523#1 52063523#2 52063523#3 52063523#4 52063523#5 52063523#6 1148718166 506310567#0 506310567#1 730432812#0 730432812#1 730432812#2 730432812#3 730432812#4 355938968 1109912029 36913434#0 36913434#1 36913434#2 36913434#3 -1066895467#2 -1066895467#1 -1066895467#0 1066895467#0"/>
    </vehicle>
    <vehicle id="25" depart="25.00">
        <route edges="112657837#0 -112657837#0 112657835#0 112657835#1 112657835#2 112657835#3 112657835#4 112657835#5 112657835#6 112657835#7 38773286#0 38773286#1 36851759#3 36851759#4 36851759#5 36852351#0 1231870395#0 1231870395#1 38757896#0 38757896#1 -38757907#9"/>
    </vehicle>
    <vehicle id="26" depart="26.00">
        <route edges="-405141229#3 -405141229#2 -405141229#1 -405141229#0 -36907529#5 -36907529#4 -36907529#3 -36907529#2 -36907529#1 -36907529#0 -36897656#23 -36897656#22 -36897656#21 -36897656#20 -36897656#19 -36897656#18 -36897656#17 -36897656#16 -36897656#15 -36897656#14 -36897656#13 -36897656#12 -36897656#11 -36897656#10 -36897656#9 -36897656#8 -36897656#7 -36897656#6 -36897656#5 -36897656#4 -36897656#3 -36897656#2 -36897656#1 -36897656#0 37898955#1 461556532 148016888#0 148016888#1 22893740#0 22893740#1 22893740#2 52033011#0 52033011#1 52033011#2 52033011#3 52033011#4 52033011#5 52033011#6 52033011#7 52033011#8 1098776742 688688870#1"/>
    </vehicle>
    <vehicle id="27" depart="27.00">
        <route edges="36897655#8 -36907529#8 -36907529#7 1094732593#0 1094732593#1 1094732593#2 -36907546#3 -36907546#2 -36907546#1 -36907546#0 -36897656#19 -36897656#18 -36897656#17 -36897656#16 -36897656#15 -36897656#14 -36897656#13 -36897656#12 -36897656#11 -36897656#10 -36897656#9 -36897656#8 -36897656#7 -36897656#6 -36897656#5 -36897656#4 -36897656#3 -36897656#2 -36897656#1 -36897656#0 37898955#1 461556532 148016888#0 148016888#1 22893740#0 22893740#1 22893740#2 154340361#0 154340361#1 154340361#2 154340361#3 154340361#4 154340361#5 154340361#6 154340361#7 154340361#8 760700376#0 760700376#1 36851759#0 36851759#1"/>
    </vehicle>
    <vehicle id="28" depart="28.00">
        <route edges="-36907546#3 -36907546#2 -36907546#1 -36907546#0 -36897656#19 -36897656#18 -36897656#17 -36897656#16 -36897656#15 -36897656#14 -36897656#13 -36897656#12 -36897656#11 -36897656#10 -36897656#9 -36897656#8 -36897656#7 -36897656#6 -36897656#5 -36897656#4 -36897656#3 -36897656#2 -36897656#1 -36897656#0 37898955#1 461556532 148016888#0 148016888#1 22893740#0 22893740#1 22893740#2 154340361#0 154340361#1 154340361#2 154340361#3 154340361#4 154340361#5 154340361#6 154340361#7 154340361#8 36882313 1205171800 1109911794 1148155465 1109911788 26283603 1205171802#0 1205171802#1 1205171802#2 1205171802#3 1205171802#4 1205171802#5 1205171802#6 1205171802#7 1205171802#8 1205171802#9 107215083#0 107215083#1 107215083#2 107215083#3 107215083#4 107215083#5 1232642395 359476589 359476587#0 359476587#1 359476587#2 359476587#3 508711055#0 508711055#1 508711055#2 52063523#2 52063523#3 -36970832#3 -36970832#2 -36970832#1 -36970832#0 36970832#0 36970832#1"/>
    </vehicle>
    <vehicle id="30" depart="30.00">
        <route edges="93688006#8 1182221972#0 1182221972#1 1182221972#2 1182221972#3 391160931#0 391160931#1 1263537982#0 1263537982#1 1278818347 1182221968#0 1182221968#1 1182221968#2 52032727#0 52032727#1 638928391 1263537981#0 1263537981#1 1263537981#2 1263537980 638928392#0 638928392#1 638928392#2 638928392#3 638928392#4 638928392#5 638928392#6 638928392#7 638928392#8 638928392#9 638928392#10 638928392#11 638928392#12 638928392#13 638928392#14 781001561#0 781001561#1 52244633#0 52244633#1 52244633#2 52244633#3 23076927#2 23076927#3 -1065391880#1 -1065391880#0 -36907517 -36897656#10 -38541572#2 -38541572#1 -38541573#0 36907545#9 36907545#10 36907545#11 36897655#0 36897655#1 36897655#2 36897655#3 36897655#4 36897655#5 36897655#6 36897655#7 36897655#8 36897655#9"/>
    </vehicle>
    <vehicle id="31" depart="31.00">
        <route edges="26808007 503401206#0 503401206#1 503401206#2 503401206#3 503401205#0 503401205#1 503401205#2 589685544 506310563#0 506310563#1 506310563#2 506310563#3 503401204#0 503401204#1 503401204#2 362206700#0 362206700#1 362206700#2 362206700#3 362206700#4 362206700#5 362206700#6 362206700#7 362206700#8 362206700#9 362206700#10 362206700#11 1109946346#0 1109946346#1 1109946347 553253465 52032736 52032737 52032735 638928391 1263537981#0 1263537981#1 1263537981#2 1263537980 638928392#0 638928392#1 638928392#2 638928392#3 638928392#4 638928392#5 638928392#6 638928392#7 638928392#8 638928392#9 638928392#10 638928392#11 638928392#12 638928392#13 638928392#14 781001561#0 781001561#1 52244633#0 52244633#1 52244633#2 52244633#3 23076927#2 23076927#3 23076927#4 23076927#5 23076927#6 23076927#7 23076927#8 23076927#9 23076927#10 23076927#11 988901291#0 988901291#1 36907523 -36897656#25 -36897656#24 36907529#0 36907529#1 36907529#2 36907529#3 36907529#4 36907529#5 36907529#6 36907529#7 36907529#8 36907529#9 36907529#10"/>
    </vehicle>
    <vehicle id="32" depart="32.00">
        <route edges="435249314#0 435249314#1 435249314#2 435249314#3 161416663#0 161416663#1 1101945532 766406223#0 766406223#1 766406223#2 46728567#0 46728567#1 46728567#2 46728567#3 46728567#4 46728567#5 46728567#6 46728567#7 -45308260#5 -45308260#4 -45308260#3 -45308260#2 -45308260#1 -45308260#0 112657835#0 112657835#1 112657835#2 112657835#3 112657835#4 112657835#5 112657835#6 112657835#7 38773286#0 38773286#1 36851759#3 36851759#4 36851759#5 36852351#0 1231870395#0 1231870395#1 38757896#0 38757896#1 251513688#0 251513688#1 298037893#0 -38757902#2 38757902#2"/>
    </vehicle>
    <vehicle id="33" depart="33.00">
        <route edges="-38757907#7 38757907#7 251492658#7 251492658#8 38757895#7 38757895#8 251513712#0 251513712#1 251513712#2 375964868#6 375964868#7 133467629 36852351#2 36852351#3 36852351#4 36852351#5 36852351#6 36852351#7 180375724#0 180375724#1 -112657835#13 -112657835#12 -112657835#11 -112657835#10 -112657835#9 -112657835#8 -112657835#7 -112657835#6 -112657835#5 -112657835#4 -112657835#3 -112657835#2"/>
    </vehicle>
    <vehicle id="34" depart="34.00">
        <route edges="107215088#3 1148718165#0 1148718165#1 362900184 359476587#0 359476587#1 359476587#2 359476587#3 508711055#0 508711055#1 508711055#2 52063523#2 52063523#3 52063523#4 52063523#5 52063523#6 554901329 1106310175 1195630061#0 1195630061#1 1157218017#0 1157218017#1 1157218017#2 1039008729#0"/>
    </vehicle>
    <vehicle id="35" depart="35.00">
        <route edges="-38757899#0 -251492658#15 -251492658#14 -251492658#13 -251492658#12 -251492658#11 -251492658#10 -251492658#9 -251492658#8 -251492658#7 -251492658#6 -251492658#5 -251492658#4 -251492658#3 -251492658#2 -251492658#1 -251492658#0 38757909#1 38757909#2 1091791758#0 1091791758#1 224618934#6 224618934#7 36851745#0 36851745#1 154340361#5 154340361#6 154340361#7 154340361#8 36882313 1205171800 1109911794 1148155465 1109911788 26283603 1205171802#0 1205171802#1 1205171802#2 1205171802#3 1205171802#4 1205171802#5 1205171802#6 1205171802#7 1205171802#8 1205171802#9 107215083#0 107215083#1 107215083#2 107215083#3 107215083#4 107215083#5 1232642395 359476589 359476587#0 359476587#1 359476587#2 359476587#3 508711055#0 508711055#1 508711055#2 52063523#2 52063523#3 52063523#4 52063523#5 52063523#6 1148718166 506310567#0 506310567#1 730432812#0 730432812#1 730432812#2"/>
    </vehicle>
    <vehicle id="36" depart="36.00">
        <route edges="46728567#4 46728567#5 46728567#6 46728567#7 -45308260#5 -45308260#4 -45308260#3 -45308260#2 -45308260#1 -45308260#0 112657835#0 112657835#1 112657835#2 112657835#3 112657835#4 112657835#5 112657835#6 112657835#7 38773286#0 38773286#1 36851759#3 36851759#4 36851759#5 360675529 224618934#1 224618934#2 224618934#3 224618934#4 224618934#5 224618934#6 224618934#7 224618934#8 224618934#9 224618934#10 224618934#11 224618934#12 224618934#13 224618934#14 148016866#0 148016866#1 148016866#2 148016873#0 148016873#1 461556532 23076927#0 23076927#1 23076927#2 23076927#3 23076927#4 23076927#5 23076927#6 23076927#7 23076927#8 23076927#9 36907521#0 36907521#1 36907521#2 -36897656#20 36907546#0 36907546#1 36907546#2 36907546#3 -1094732593#2 -1094732593#1 1094732593#1"/>
    </vehicle>
    <vehicle id="37" depart="37.00">
        <route edges="36897672#1 -36897672#1 -23515292#3 -23515292#2 -23515292#1 -23515292#0 23076921#2 111867007#0 111867007#1 111867007#2 111867007#3 111867007#4 111867007#5 1259465066 1214076610#0 1214076610#1 1214076610#2 37898955#0 37898955#1 461556532 148016888#0 148016888#1 22893740#0 22893740#1 22893740#2 154340361#0 154340361#1 154340361#2 154340361#3 154340361#4 154340361#5 154340361#6 154340361#7 154340361#8 36882313 1205171800 1109911794 1148155465 1109911788 26283603 1205171802#0"/>
    </vehicle>
    <vehicle id="38" depart="38.00">
        <route edges="52244636#0 52244636#1 52033011#5 38757912 38757911#1 38757911#2 224618934#9 224618934#10 224618934#11 224618934#12 224618934#13 224618934#14 148016866#0 148016866#1 148016866#2 148016873#0 148016873#1 461556532 148016888#0 148016888#1 22893740#0 22893740#1 22893740#2 154340361#0 154340361#1 154340361#2 154340361#3 154340361#4 154340361#5 154340361#6 154340361#7 154340361#8 36882313 1205171800 1109911794 1148155465 1109911788 26283603 1205171802#0 1205171802#1 1205171802#2 1205171802#3 1205171802#4 1205171802#5 1205171802#6 1205171802#7 1205171802#8 1205171802#9 107215083#0 107215083#1 107215083#2 107215083#3 107215083#4 107215083#5 1232642395 359476589 359476587#0 359476587#1 359476587#2 359476587#3 760700372 503401204#0 503401204#1 503401204#2 1148408385 152051153#0 152051153#1 152051153#2 152051153#3 152051153#4 152051153#5 152051153#6 37110390#0 37110390#1 161416662#0 161416662#1 172920277#0 172920277#1 172920277#2 172920277#3"/>
    </vehicle>
    <vehicle id="39" depart="39.00">
        <route edges="-395716924 395716924 173470557#1 112657835#6 112657835#7 38773286#0 38773286#1 36851759#3 36851759#4 36851759#5 360675529 224618934#1 224618934#2 224618934#3 224618934#4 224618934#5 224618934#6 224618934#7 224618934#8 224618934#9 224618934#10 224618934#11 224618934#12 224618934#13 224618934#14 148016866#0 148016866#1 148016866#2 148016873#0 148016873#1 461556532 23076927#0 23076927#1 23076927#2 23076927#3 -1065391880#1 -1065391880#0 -36907517 -36897656#10 -36897656#9 -36907536#7 -36907536#6 -36907536#5 -36907536#4 -421102467 112243698#2 112243698#3 421102468 -995260042 995260042 -421102468"/>
    </vehicle>
    <vehicle id="40" depart="40.00">
        <route edges="298037893#6 298037893#7 -298037893#7 -298037893#6 -298037893#5 -298037893#4 -298037893#3 -298037893#2 -298037893#1 -298037893#0 251513712#0 251513712#1 251513712#2 375964868#6 375964868#7 375964868#8 224618934#0 224618934#1 224618934#2 224618934#3 224618934#4 224618934#5 224618934#6 224618934#7 224618934#8 224618934#9 224618934#10 224618934#11 224618934#12 224618934#13 224618934#14 148016866#0 148016866#1 148016866#2 148016873#0 148016873#1 461556532 23076927#0 23076927#1 23076927#2 23076927#3 23076927#4 23076927#5 23076927#6 23076927#7 23076927#8 23076927#9 23076927#10 23076927#11 988901291#0 988901291#1 -988901291#1"/>
    </vehicle>
    <vehicle id="41" depart="41.00">
        <route edges="358318637#2 654367779 -654367780#1 -654367780#0 654367781#0 654367781#1 359476587#0 359476587#1 359476587#2 359476587#3 760700372 503401204#0 503401204#1 503401204#2 362206700#0 362206700#1 362206700#2 362206700#3 362206700#4 362206700#5 362206700#6 362206700#7 362206700#8 362206700#9 362206700#10 362206700#11 1109946346#0 1109946346#1 1109946347 553253465 52032736 52032737 52032735 638928391 1263537981#0 1263537981#1 1263537981#2 1263537980 638928392#0 638928392#1 638928392#2 638928392#3 638928392#4 638928392#5 638928392#6 638928392#7 638928392#8 638928392#9 638928392#10 638928392#11 638928392#12 638928392#13 638928392#14 781001561#0 781001561#1 781001561#2 781001561#3 22893740#0 22893740#1 22893740#2 52033011#0 52033011#1 52033011#2 52033011#3 52033011#4 52033011#5 52033011#6 52033011#7 52033011#8"/>
    </vehicle>
    <vehicle id="42" depart="42.00">
        <route edges="1205171802#1 1205171802#2 1205171802#3 1205171802#4 1205171802#5 1205171802#6 1205171802#7 1205171802#8 1205171802#9 107215083#0 107215083#1 107215083#2 107215083#3 107215083#4 107215083#5 1232642395 359476589 359476587#0 359476587#1 359476587#2 359476587#3 760700372 503401204#0 503401204#1 503401204#2 362206700#0 362206700#1 362206700#2 362206700#3 362206700#4 362206700#5 362206700#6 362206700#7 362206700#8 362206700#9 362206700#10 362206700#11 1109946346#0 1109946346#1 1109946347 553253465 52032736 52032737 52032735 638928391 1263537981#0 1263537981#1 1263537981#2 1263537980 638928392#0 638928392#1 638928392#2 638928392#3 638928392#4 638928392#5 638928392#6 638928392#7 638928392#8 638928392#9 638928392#10 638928392#11 638928392#12 638928392#13 638928392#14 781001561#0 781001561#1 781001561#2 781001561#3 22893740#0 22893740#1 22893740#2 52033011#0 52033011#1 52033011#2 52033011#3 52033011#4 52033011#5 52033011#6 52033011#7 52033011#8 52033011#9 38757916#0 -38757916#0"/>
    </vehicle>
    <vehicle id="44" depart="44.00">